
Note: No compatibility mode selected!


Circuit: * 555 astable transient simulation evidence

Doing analysis at TEMP = 27.000000 and TNOM = 27.000000

Using SPARSE 1.3 as Direct Linear Solver

Initial Transient Solution
--------------------------

Node                                   Voltage
----                                   -------
out                                          0
vout#branch                                  0


No. of Data Rows : 3060

  Measurements for Transient Analysis

period              =  7.20000e-01 targ=  1.44050e+00 trig=  7.20500e-01
frequency           =  1.38889e+00


Total analysis time (seconds) = 0.00649

Total elapsed time (seconds) = 0.021 

Total DRAM available = 131072.000 MB.
DRAM currently available = 40937.797 MB.
Maximum ngspice program size =    9.953 MB.
Current ngspice program size =    9.953 MB.

